          23
 
C             3.3557291625            1.1262523493           -0.2628466794
C             1.8421527173            1.1986144969           -0.2690937628
N             1.2428384942           -0.0838448869            0.1059461153
C             0.8173266354           -0.4248284746            1.3818944968
C             0.0628910454           -1.5571245646            1.2603138826
N             0.0581783813           -1.8954041273           -0.0820002255
C             0.6912167805           -0.9337806456           -0.7731537253
C            -0.7468372040           -2.9336366210           -0.6994938096
N            -1.6858885700            1.2370764657           -0.1037774974
O            -1.3312262788            1.0741787047           -1.2843700657
O            -1.1546882442            2.1236331759            0.5831018309
O            -2.4934984117            0.4481204884            0.4116796545
H             3.7830397539            2.1086930276           -0.4911344102
H             3.7159340895            0.4131848708           -1.0103587097
H             3.7267590399            0.8058183676            0.7172896507
H             1.4843409788            1.4760811963           -1.2665619331
H             1.5051605234            1.9674431657            0.4342067309
H             1.0406271389            0.2364127522            2.1998641224
H            -0.5259932502           -2.1339841674            1.9508586208
H             0.7285105746           -0.8450047614           -1.8521583018
H            -1.2715377225           -3.5146369147            0.0639181564
H            -0.0884146486           -3.5989727307           -1.2653737062
H            -1.4757409390           -2.4756371044           -1.3726404509
          23
        -42.15335005
 C         -2.6982357657       -0.6000818846        0.2494151180
 C         -2.3629137584        0.8841612637        0.3527673439
 N         -0.9621638186        1.1007479832        0.0048950176
 C         -0.4713290951        1.2222566378       -1.2719157756
 C          0.8813290422        1.2301876224       -1.1740222597
 N          1.1873215722        1.1126435972        0.1556898965
 C          0.0593005731        0.9820267972        0.8522150322
 C          2.5087660357        0.8582365922        0.7059585341
 N          0.5762455589       -1.6847009160       -0.0768256237
 O         -0.3177839617       -2.0936887193       -0.7978193325
 O          1.7178621355       -1.5407690815       -0.4986636351
 O          0.3160847660       -1.3443113131        1.0962639039
 H         -3.7391286255       -0.7547102401        0.5303929945
 H         -2.0513120788       -1.1771792011        0.9087676643
 H         -2.5395465711       -0.9526560266       -0.7678747203
 H         -2.5147230648        1.2512588370        1.3719250497
 H         -2.9740365331        1.4786202700       -0.3324261077
 H         -1.1196151230        1.2895115511       -2.1273594589
 H          1.6454317610        1.2831009453       -1.9287180545
 H         -0.0150576518        0.8927724548        1.9207545513
 H          2.8476107132        1.7199476411        1.2830551338
 H          3.1909746320        0.6564126023       -0.1156818040
 H          2.4382412153       -0.0263517916        1.3398146678
