22

C          1.12096        1.41200       -1.04970
C          2.13189        0.44576       -0.46315
N          2.62355       -0.47986       -1.48796
C          2.50377       -1.85976       -1.44175
C          3.08457       -2.33917       -2.58005
N          3.54010       -1.23991       -3.29465
C          3.32864       -0.13105       -2.56734
C          4.16866       -1.25530       -4.60150
C          1.48303       -2.04209        2.22415
N          0.32877       -1.98968        2.12833
S          3.24369       -2.07154        2.23379
H          0.67717        2.02765       -0.26209
H          0.31953        0.86912       -1.56069
H          1.59264        2.07548       -1.78087
H          1.65131       -0.11995        0.33427
H          2.98979        0.98001       -0.04295
H          2.01399       -2.32554       -0.60434
H          3.22248       -3.32922       -2.97808
H          3.63775        0.87240       -2.83129
H          4.16308       -2.26718       -5.01567
H          5.19896       -0.90173       -4.50895
H          3.61040       -0.59240       -5.26782
