          27
 
C             0.7344307261            3.1870783082           -0.4048681035
C             0.4396660863            1.7073295617           -0.4687113974
N             1.5459129705            0.8220976681           -0.1167550804
C             2.2603038100            0.8209609413            1.0646000867
C             3.0420288940           -0.2994841465            1.0521473545
N             2.7619166212           -0.9691967855           -0.1260554581
C             1.7364724612           -0.3501447567           -0.7427214495
C             3.3394660458           -2.2223523033           -0.5727489048
C            -2.9290275168            1.1352219993            0.1335346007
S            -2.2653258483           -0.5179699791            0.0695370598
O            -3.4337120906           -1.3543603438           -0.1623092615
O            -1.3136611046           -0.4684213349           -1.0465460434
O            -1.6162119320           -0.6672451163            1.3672728739
H            -0.1743644037            3.7444364284           -0.6590933691
H             1.5208377653            3.4676167595           -1.1095131069
H             1.0386635146            3.4894263736            0.6007312327
H             0.0994216462            1.4632210304           -1.4799490747
H            -0.3406828122            1.4941649287            0.2544211382
H             2.0956015691            1.6081534381            1.7786548841
H             3.7429228406           -0.7247541563            1.7465407975
H             1.1863746151           -0.7198099582           -1.6037509847
H             4.2163040499           -2.4708700737            0.0332672955
H             3.6506891566           -2.1186116190           -1.6164293431
H             2.5954922426           -3.0170325516           -0.4835369038
H            -2.8913505097            1.5728383142           -0.8638723678
H            -2.3350704128            1.7459018430            0.8236545885
H            -3.9608755613            1.0996534906            0.4968932553
          27
        -46.44742919
 C         -0.9551954457       -2.7118183268       -0.4114891602
 C         -1.5212210297       -1.9340155156        0.7708001450
 N         -1.7161310986       -0.5382245363        0.3877760112
 C         -2.4841978026       -0.0992749462       -0.6573448039
 C         -2.2187776935        1.2237936985       -0.8125374088
 N         -1.3003774509        1.5582146615        0.1447784806
 C         -0.9946566609        0.4764514503        0.8533217562
 C         -0.5803226703        2.8168551610        0.2170228785
 C          3.3682523895       -0.3551927672       -0.5654212315
 S          1.7018231590       -0.0264260058       -0.0195087150
 O          1.7454466120        1.2924786467        0.6297050515
 O          0.8603411978       -0.0390360853       -1.2221469285
 O          1.3651093523       -1.1086940276        0.9185748637
 H         -1.6820446128       -2.7739144507       -1.2208281064
 H         -0.6987830863       -3.7184279988       -0.0846587814
 H         -0.0574369474       -2.2139674997       -0.7750221053
 H         -0.8100070689       -1.9410056142        1.5996689859
 H         -2.4799765775       -2.3446530899        1.1031015029
 H         -3.1478301034       -0.7514463573       -1.1970380694
 H         -2.6010692270        1.9431323739       -1.5152164167
 H         -0.2734293809        0.4274133827        1.6505607581
 H         -1.2623503077        3.6416986730        0.0147507923
 H          0.2207729541        2.7893022523       -0.5233367104
 H         -0.1398925501        2.9133619494        1.2065555576
 H          4.0117831238       -0.3510980823        0.3083130774
 H          3.6524647369        0.4278361494       -1.2610073892
 H          3.3765780354       -1.3265189574       -1.0493982539
