          24
 
B             1.9211991444           -0.3626734321            0.0233412750
F             3.1765815918           -0.9456105619            0.4563538635
F             2.1897200212            0.8540296250           -0.7229510463
F             1.1061119789           -0.0631464603            1.1886133501
F             1.2236556288           -1.3061074878           -0.8309918977
C             0.0100218458            2.8786180373            0.4179096419
C            -1.4299842397            2.4337952902            0.1743067588
N            -1.5351496455            1.0049010131           -0.1165791681
C            -1.3513335301            0.3943111690           -1.3087941375
C            -1.6214873716           -0.9504037514           -1.1553290549
N            -1.9525730934           -1.1685261090            0.1336079584
C            -1.9000643316            0.0307453506            0.7438927179
C            -2.3041902854           -2.4418145112            0.7517187232
H             0.0210136322            3.9643218764            0.6537697120
H             0.6379930998            2.7128790986           -0.4775314469
H             0.4363600216            2.3422278043            1.2916306706
H            -1.8736664588            3.0142266480           -0.6626960399
H            -2.0065157841            2.6634153428            1.0937756193
H            -1.0737455405            0.8942002133           -2.2306442005
H            -1.5856012267           -1.7156866834           -1.9224991570
H            -2.1213805386            0.1942877680            1.7917662518
H            -2.2838257071           -3.2601993810            0.0011771823
H            -3.3250655943           -2.3780241184            1.1831495420
H            -1.5796643072           -2.6800302240            1.5596095881
          24
        -47.13249065
 B         -1.9365170045       -0.2087665384       -0.1157796311
 F         -3.1213234934       -0.5406704277       -0.6987195015
 F         -1.4742223726       -1.2220551373        0.7646152432
 F         -2.0244303574        0.9983093033        0.6236198281
 F         -0.9101780334       -0.0162142721       -1.0836859600
 C          0.9619543809       -2.5867621749       -0.5219294187
 C          1.4612393615       -1.8645064237        0.7246757087
 N          1.5888750748       -0.4395464239        0.4336366433
 C          2.4806573084        0.1275260608       -0.4395635482
 C          2.0971238605        1.4199167071       -0.6093652698
 N          0.9847158620        1.6087371508        0.1663061719
 C          0.6812424865        0.4679744150        0.7765747812
 C          0.0881742196        2.7511649053        0.1204059707
 H          1.6864251263       -2.5033517987       -1.3314252952
 H          0.0177074519       -2.1476448816       -0.8410202538
 H          0.8068924590       -3.6387753310       -0.2874900893
 H          2.4334818601       -2.2448102912        1.0515297392
 H          0.7338577714       -1.9640559129        1.5336883240
 H          3.3038382933       -0.4242966081       -0.8581937946
 H          2.5189820923        2.2084955116       -1.2075045191
 H         -0.1550505688        0.3092823491        1.4351260034
 H         -0.6524772047        2.5624270428       -0.6590344275
 H          0.6553313019        3.6544016478       -0.0969240363
 H         -0.4236523102        2.8364046859        1.0768160284
