24

B          0.08768        0.00008       -2.56568
F         -1.15267        0.38637       -3.21036
F         -0.18972       -1.00767       -1.55726
F          0.69036        1.16984       -1.94893
F          0.99301       -0.54979       -3.55792
C          1.58707       -0.04898        0.90760
C          3.08440       -0.01735        0.61124
N          3.37322        0.00700       -0.82173
C          3.42693       -1.04750       -1.66620
C          3.80504       -0.58880       -2.91176
N          3.96512        0.74811       -2.83693
C          3.70461        1.08755       -1.56007
C          4.34863        1.65324       -3.91425
H          1.43329       -0.04462        2.00798
H          1.11590       -0.96132        0.49618
H          1.09392        0.85733        0.49739
H          3.58487       -0.89494        1.07351
H          3.49505        0.89887        1.08288
H          3.23788       -2.07939       -1.39013
H          3.95796       -1.18066       -3.80720
H          3.75355        2.09845       -1.17348
H          4.51972        1.09035       -4.85625
H          5.28427        2.18424       -3.64038
H          3.54173        2.39773       -4.08460
