24

C          1.39002       -1.27048        0.27414
C          2.81012       -0.89772       -0.11391
N          2.96174       -0.53613       -1.53158
C          2.62435       -1.34037       -2.61126
C          3.12325       -0.73748       -3.72952
N          3.73686        0.43096       -3.31339
C          3.61326        0.55072       -1.98137
C          4.45291        1.37000       -4.17028
C          0.59350        2.42238        0.44924
N         -0.30295        2.08846       -0.36761
N          1.45214        2.74591        1.18189
C          1.65521        1.80624        2.11324
N          1.87619        0.94000        2.85543
H          1.37890       -1.72484        1.26995
H          0.93953       -1.97821       -0.42613
H          0.74236       -0.39364        0.30251
H          3.48020       -1.74359        0.07061
H          3.16557       -0.05989        0.49347
H          2.09972       -2.26423       -2.43958
H          3.14097       -1.00441       -4.77227
H          4.00620        1.36076       -1.37658
H          4.48097        0.99600       -5.19795
H          5.47631        1.47966       -3.80139
H          3.94207        2.33556       -4.14879
