28

B          0.58226       -2.02243       -0.20249
C         -0.07392       -3.39497       -0.04248
N         -0.56111       -4.43477        0.08300
C          0.25457       -1.19561        1.07324
N         -0.00203       -0.59498        2.02915
C          0.02915       -1.34167       -1.47682
N         -0.36927       -0.83972       -2.44112
C          2.10872       -2.22199       -0.38076
N          3.24919       -2.35763       -0.52965
C          1.11079        1.75030       -0.10408
C          2.49432        1.17333        0.15075
N          3.11894        1.91060        1.23132
C          2.74940        1.91626        2.52670
C          3.56733        2.79958        3.19630
N          4.42843        3.32369        2.29974
C          4.15443        2.75230        1.11635
C          5.43950        4.33881        2.52695
H          0.59338        1.19363       -0.90390
H          1.21506        2.80787       -0.42421
H          0.49549        1.72296        0.81883
H          3.09097        1.25465       -0.78529
H          2.46663        0.11245        0.44416
H          1.93975        1.33077        2.94761
H          3.52243        3.04606        4.24762
H          4.66841        2.97065        0.18920
H          5.42434        4.67115        3.58488
H          5.21609        5.20958        1.87322
H          6.44017        3.93551        2.26975
