          26
 
C             0.1079341233            1.5041036550           -0.2214400430
C             0.7210496144            0.2567435780           -0.8297643165
N             1.9537873428           -0.0929299536           -0.1594255632
C             2.1948509681           -1.1886534061            0.6541336043
C             3.5429745221           -1.2160842703            0.8789752112
N             4.0743889275           -0.1221470807            0.2105016647
C             3.0829717587            0.6036393357           -0.3174935879
C             5.4773842195            0.2092519904            0.0319225779
C            -2.4910561763           -0.0323005591           -1.0072477193
C            -2.8271596496           -0.1459459581            0.2542462645
C            -3.2132487189            1.1924599164            0.8625263862
N            -3.5335383144            2.3027790088            1.3671448855
C            -3.7911872992           -1.3190319586            0.3243867451
N            -4.5909261102           -2.2922051639            0.3825716949
N            -2.2579928039            0.0318890701           -2.2399620934
H            -0.6896307707            1.8993613051           -0.8574147466
H             0.8467222238            2.2993905593           -0.0988639837
H            -0.3037226068            1.2801055900            0.7681544142
H             0.9513193199            0.4200469527           -1.8879244820
H             0.0528249755           -0.6069291078           -0.7667940636
H             1.3827896665           -1.8409141369            0.9315094516
H             4.2029390712           -1.8839307606            1.4021771539
H             3.1831629778            1.5600468735           -0.8239100765
H             6.1130543227           -0.5641100565            0.4675591887
H             5.6803302765            1.1753275334            0.5014198273
H             5.6702959758            0.2789286932           -1.0433538702
          26
        -42.88616816
 C         -2.8684389128       -0.6302244258        0.5607022044
 C         -2.7151514059        0.7701401252       -0.0221741336
 N         -1.3227427805        1.0193218407       -0.3852654530
 C         -0.7330464640        0.6390274501       -1.5625669161
 C          0.5808420956        0.9681196173       -1.4684261715
 N          0.7635687491        1.5298403321       -0.2324619654
 C         -0.3970713050        1.5414548434        0.4220258513
 C          2.0465691180        1.9451742847        0.3097627264
 C          2.2587045340       -1.2760185688        0.0362324212
 C          0.9482081473       -1.5768616395        0.4185768110
 C          0.4314672368       -0.9204232358        1.5323282978
 N         -0.0326173366       -0.2705837811        2.3789389091
 C          0.0325694174       -2.0928289312       -0.5040592503
 N         -0.7784298496       -2.4103401012       -1.2701365719
 N          3.3141808428       -0.9096426265       -0.2760062205
 H         -2.5564598220       -1.3785699754       -0.1678021593
 H         -3.9128403214       -0.7945756244        0.8214563833
 H         -2.2536841358       -0.7323771895        1.4544414789
 H         -3.0113237222        1.5320213081        0.7043218609
 H         -3.3192892239        0.8875672739       -0.9260340052
 H         -1.2830422098        0.1428498225       -2.3425443803
 H          1.3978776097        0.8279974594       -2.1540477876
 H         -0.5540179764        1.8824384553        1.4304041139
 H          1.9651387165        2.0029731414        1.3938406269
 H          2.3202386784        2.9186311016       -0.0993221945
 H          2.7972344602        1.1988830374        0.0338573848
