          24
 
C             0.8521797218           -2.0798711030            0.6977555483
C             0.0169987638           -1.6386437247           -0.4913652725
N            -1.1559342808           -0.8303704204           -0.1246953554
C            -2.1665134961           -1.2199792911            0.7432203915
C            -3.1631039590           -0.2934482023            0.6372447067
N            -2.7334833220            0.6525790188           -0.2767532805
C            -1.5066621083            0.3257637184           -0.7149295280
C            -3.5028302275            1.8030278933           -0.7386593593
C             2.4125071326            1.3649229831            0.7308193117
N             2.0032625246            1.3466696960            1.9201699686
N             2.7630204007            1.4024377850           -0.3892001604
C             3.2003066313            0.2012257622           -0.7860636635
N             3.4893687007           -0.8683356090           -1.1361089173
H             1.5770935567           -2.8391359775            0.3875601694
H             0.2426107478           -2.5015983167            1.5007331689
H             1.4087067660           -1.2448681112            1.1245629292
H            -0.3581811159           -2.5158945649           -1.0282284633
H             0.6256584807           -1.0607512843           -1.1933539637
H            -2.0610736207           -2.1334606950            1.3023825158
H            -4.1395617157           -0.1986662574            1.0804602108
H            -0.9243867745            0.8772858443           -1.4450778260
H            -4.5018030387            1.7915791146           -0.2929112120
H            -3.5961125747            1.7553991106           -1.8269988195
H            -2.9854135581            2.7201697117           -0.4473579958
          24
        -38.70114360
 C         -1.8708803115       -1.1953174380       -1.6136469024
 C         -1.6218467295       -1.5153678344       -0.1488294908
 N         -0.2667396809       -1.1483744166        0.2629662756
 C          0.0650058673       -0.8366449976        1.5567563150
 C          1.3612496149       -0.4348889254        1.5487699285
 N          1.7935980694       -0.5159678718        0.2513657693
 C          0.7830261197       -0.9143874554       -0.5248262163
 C          3.0339663883        0.0181070406       -0.2810069175
 C          0.0072797315        1.7713239756       -0.9144610627
 N          0.7652926249        1.3387139389       -1.6961796295
 N         -0.7874196894        2.2692422243       -0.0447805050
 C         -1.5117075721        1.5869611523        0.7770856744
 N         -2.1455784127        0.9724640427        1.5380159976
 H         -1.2885386841       -1.8451275991       -2.2670225854
 H         -1.6136078574       -0.1574471116       -1.8242051103
 H         -2.9282317549       -1.3453745772       -1.8285640110
 H         -1.7670710438       -2.5818300450        0.0548025038
 H         -2.2980778526       -0.9326573699        0.4900668771
 H         -0.6588308275       -0.8870441559        2.3507538280
 H          2.0029924301       -0.0993184050        2.3440000273
 H          0.8376836766       -1.0516255032       -1.5886539644
 H          3.6266684907        0.4277253867        0.5339257711
 H          2.7616624947        0.8052786519       -0.9939346915
 H          3.5893346219       -0.7693821216       -0.7907237081
          24
        -38.70153696
 C         -2.8505195053       -1.1514806988        0.3501021705
 C         -2.8106065293        0.3540433367        0.1097915622
 N         -1.4304165422        0.8237913959        0.1288965686
 C         -0.7143990064        1.1409206039        1.2582844738
 C          0.5577130867        1.3935480327        0.8627370930
 N          0.5944110852        1.2170207075       -0.4965863587
 C         -0.6067799224        0.8159982219       -0.9236386193
 C          1.7959722419        1.2747898773       -1.3111297182
 C          0.5763186793       -1.7416800775       -0.5619443611
 N         -0.2746127933       -1.5328277795       -1.3413660757
 N          1.4679692608       -1.9652507451        0.3246951318
 C          2.2825425901       -1.0655174336        0.7718210593
 N          2.9807708260       -0.2344422644        1.1932729347
 H         -3.8809544087       -1.4993102775        0.2955120896
 H         -2.4420764343       -1.3888512102        1.3314835442
 H         -2.2529245623       -1.6590395589       -0.4093025496
 H         -3.3612243776        0.8957087901        0.8841806037
 H         -3.2359174508        0.6022476707       -0.8666434842
 H         -1.1707698947        1.1679607153        2.2318665644
 H          1.4429915928        1.6406219101        1.4229196498
 H         -0.8895082264        0.6431525434       -1.9453830040
 H          1.8875705690        2.2605479040       -1.7697553949
 H          1.7290648854        0.5078624441       -2.0822925617
 H          2.6534084215        1.0774918019       -0.6656970720
