          28
 
B            -2.7458980337           -0.1220045895           -0.1085308808
C            -4.0943969952           -0.8359700648           -0.2173685036
N            -5.1092060436           -1.3803312727           -0.3074630493
C            -1.8325212563           -0.9844718218            0.8081983931
N            -1.1685564702           -1.6386217036            1.4949317991
C            -2.9668547250            1.2915871438            0.4798726299
N            -3.1335060424            2.3569805542            0.9014544125
C            -2.1510285373            0.0305707661           -1.5313927515
N            -1.7017778987            0.1642665729           -2.5904195446
C             0.4732597388            1.2899380454            1.3631903705
C             0.8549123409            0.8902981482           -0.0533609147
N             2.1366099294            0.2138545374           -0.0213553786
C             2.4027526905           -0.9904571362            0.5203113764
C             3.7542323556           -1.2235180136            0.3906445727
N             4.2981928811           -0.1563931697           -0.2301260041
C             3.2941771043            0.6949579170           -0.4930486692
C             5.6972830149            0.0772057065           -0.5339914442
H            -0.5131423702            1.7839176126            1.3805647561
H             1.2293152852            2.0033189861            1.7521345494
H             0.4515917698            0.4041583080            2.0310446697
H             0.9035618496            1.8084880880           -0.6805257118
H             0.1275692601            0.2035337519           -0.5134146269
H             1.6706458336           -1.6423195721            0.9835521053
H             4.2919524480           -2.0948972585            0.7364734653
H             3.4074754635            1.6550751964           -0.9796673532
H             6.3192269270           -0.7652788758           -0.1688869935
H             6.0173680898            1.0095052115           -0.0203002067
H             5.8279152066            0.1993483976           -1.6285962805
          28
        -47.50566963
 B          2.0387215820       -0.3205327493       -0.0131475252
 C          1.2279416584       -0.5544589179       -1.3443335582
 N          0.5023371581       -0.6993110227       -2.2300468137
 C          1.2930344352       -1.1953957161        1.0626001153
 N          0.6177669458       -1.7903474982        1.7839140482
 C          1.8128479507        1.1884119643        0.3714371454
 N          1.5344334013        2.2771323815        0.6293395125
 C          3.5511946811       -0.6844948732       -0.1534445679
 N          4.6642482897       -0.9528445286       -0.2597790667
 C         -3.2144677526       -2.2127857335       -0.2977203494
 C         -1.7468054813       -1.8090782867       -0.2673730049
 N         -1.6176928511       -0.3975573871        0.0797716651
 C         -1.5117616084        0.0971837807        1.3498870145
 C         -1.3290297501        1.4381564908        1.2353138118
 N         -1.3405608542        1.7263810759       -0.1035973284
 C         -1.5075012505        0.6012718430       -0.7937410265
 C         -1.0578079098        3.0363841314       -0.6631078738
 H         -3.7559357625       -1.6265047751       -1.0400038799
 H         -3.6732904375       -2.0549127181        0.6780310554
 H         -3.2900775358       -3.2677181252       -0.5567989023
 H         -1.2734820259       -1.9487924781       -1.2435866844
 H         -1.1923983714       -2.3768114613        0.4859452998
 H         -1.5266788286       -0.5468230890        2.2115040808
 H         -1.1679731283        2.1996233328        1.9773960288
 H         -1.5011612705        0.5005893246       -1.8656931950
 H         -1.1338899877        2.9854693140       -1.7473490819
 H         -0.0404836714        3.3111241209       -0.3676368460
 H         -1.7689337027        3.7616222574       -0.2683291669
